/*--------------------------------*- C++ -*----------------------------------*\
| =========                 |                                                 |
| \\      /  F ield         | OpenFOAM: The Open Source CFD Toolbox           |
|  \\    /   O peration     | Version:  v2406                                 |
|   \\  /    A nd           | Website:  www.openfoam.com                      |
|    \\/     M anipulation  |                                                 |
\*---------------------------------------------------------------------------*/
FoamFile
{
    version     2.0;
    format      ascii;
    class       volScalarField;
    object      epsilon;
}
// * * * * * * * * * * * * * * * * * * * * * * * * * * * * * * * * * * * * * //

dimensions      [0 2 -3 0 0 0 0];

internalField   uniform 2.76e-6;

boundaryField
{

    walls
    {
        type            epsilonWallFunction;
        value           $internalField;
    }
    vent_a
    {
        type            inletOutlet;
        inletValue      $internalField;
        value           $internalField; //placeholder
    }
    vent_b
    {
        type            inletOutlet;
        inletValue      $internalField;
        value           $internalField; //placeholder
    }
}
// ************************************************************************* //
