/*--------------------------------*- C++ -*----------------------------------*\
| =========                 |                                                 |
| \\      /  F ield         | OpenFOAM: The Open Source CFD Toolbox           |
|  \\    /   O peration     | Version:  2406                                  |
|   \\  /    A nd           | Website:  www.openfoam.com                      |
|    \\/     M anipulation  |                                                 |
\*---------------------------------------------------------------------------*/
FoamFile
{
    version     2.0;
    format      binary;
    arch        "LSB;label=32;scalar=64";
    class       volScalarField;
    location    "0";
    object      N2;
}
// * * * * * * * * * * * * * * * * * * * * * * * * * * * * * * * * * * * * * //

dimensions      [0 0 0 0 0 0 0];

internalField   uniform 0.767;

boundaryField
{
    left
    {
        type            symmetryPlane;
    }
    right
    {
        type            inletOutlet;
        inletValue      uniform 0.767;
        value           uniform 0.767;
    }
    top
    {
        type            inletOutlet;
        inletValue      uniform 0.767;
        value           uniform 0.767;
    }
    bottom
    {
        type            zeroGradient;
    }
    front
    {
        type            inletOutlet;
        inletValue      uniform 0.767;
        value           uniform 0.767;
    }
    back
    {
        type            inletOutlet;
        inletValue      uniform 0.767;
        value           uniform 0.767;
    }
    walls
    {
        type            zeroGradient;
    }
    source
    {
        type            fixedValue;
        value           uniform 0;
    }
    nozzle_wall_rest
    {
        type            zeroGradient;
    }
}


// ************************************************************************* //
