/*--------------------------------*- C++ -*----------------------------------*\
| =========                 |                                                 |
| \\      /  F ield         | OpenFOAM: The Open Source CFD Toolbox           |
|  \\    /   O peration     | Version:  v2406                                 |
|   \\  /    A nd           | Website:  www.openfoam.com                      |
|    \\/     M anipulation  |                                                 |
\*---------------------------------------------------------------------------*/
FoamFile
{
    version     2.0;
    format      ascii;
    class       volVectorField;
    object      U;
}

dimensions      [0 1 -1 0 0 0 0];

internalField   uniform (0 0 0);

boundaryField
{
    left
    {
        type            symmetryPlane;
    }

    right
    {
        type            pressureInletOutletVelocity;
        phi             phi;
        tangentialVelocity uniform (0 0 0);
        value           uniform (0 0 0);
    }

    top
    {
        type            pressureInletOutletVelocity;
        phi             phi;
        tangentialVelocity uniform (0 0 0);
        value           uniform (0 0 0);
    }

    bottom
    {
        type            pressureInletOutletVelocity;
        phi             phi;
        tangentialVelocity uniform (0 0 0);
        value           uniform (0 0 0);
    }

    front
    {
        type            pressureInletOutletVelocity;
        phi             phi;
        tangentialVelocity uniform (0 0 0);
        value           uniform (0 0 0);
    }

    back
    {
        type            pressureInletOutletVelocity;
        phi             phi;
        tangentialVelocity uniform (0 0 0);
        value           uniform (0 0 0);
    }

    walls
    {
        type            noSlip;
    }

    source
    {
        type            fixedValue;
        value           uniform (0 0 2008.25); // Birch 1987 notional nozzle: 500 bar, 3.5 mm², V_n = 2008.25 m/s
    }

    nozzle_wall_rest
    {
        type            noSlip;
    }
}
